1
9
.tran 10n 1u
3
1
/viblator/A
V
1
/viblator/B
V
1
/viblator/C
V
