1
9
.tran 10n 500n
3
1
/viblator/A
V
1
/viblator/B
V
1
/viblator/C
V
